
*** ChampSim Multicore Out-of-Order Simulator ***

Warmup Instructions: 5000000
Simulation Instructions: 50000000
Number of CPUs: 2
LLC sets: 4096
LLC ways: 16
Off-chip DRAM Size: 4096 MB Channels: 1 Width: 64-bit Data Rate: 3200 MT/s

CPU 0 runs /home/vivek2707/UtilityBasedCachePartioning/dpc3_traces/hmmer_7B.trace.xz
CPU 1 runs /home/vivek2707/UtilityBasedCachePartioning/dpc3_traces/leslie3d_94B.trace.xz
CPU 0 Bimodal branch predictor
CPU 1 Bimodal branch predictor

Warmup complete CPU 0 instructions: 5287526 cycles: 2497560 (Simulation time: 0 hr 0 min 34 sec) 
Warmup complete CPU 1 instructions: 5000002 cycles: 2497560 (Simulation time: 0 hr 0 min 34 sec) 

Heartbeat CPU 0 instructions: 10000003 cycles: 5904010 heartbeat IPC: 1.69376 cumulative IPC: 1.3834 (Simulation time: 0 hr 1 min 3 sec) 
Heartbeat CPU 1 instructions: 10000003 cycles: 11971647 heartbeat IPC: 0.835307 cumulative IPC: 0.527755 (Simulation time: 0 hr 1 min 47 sec) 
Heartbeat CPU 0 instructions: 20000003 cycles: 13512670 heartbeat IPC: 1.31429 cumulative IPC: 1.33566 (Simulation time: 0 hr 1 min 59 sec) 
Heartbeat CPU 0 instructions: 30000000 cycles: 21202639 heartbeat IPC: 1.3004 cumulative IPC: 1.32116 (Simulation time: 0 hr 2 min 57 sec) 
Heartbeat CPU 0 instructions: 40000002 cycles: 28430805 heartbeat IPC: 1.38348 cumulative IPC: 1.33853 (Simulation time: 0 hr 3 min 50 sec) 
Heartbeat CPU 0 instructions: 50000000 cycles: 35981129 heartbeat IPC: 1.32445 cumulative IPC: 1.33536 (Simulation time: 0 hr 4 min 42 sec) 
Heartbeat CPU 1 instructions: 20000002 cycles: 37280405 heartbeat IPC: 0.39512 cumulative IPC: 0.431247 (Simulation time: 0 hr 4 min 52 sec) 
Finished CPU 0 instructions: 50000003 cycles: 36823473 cumulative IPC: 1.35783 (Simulation time: 0 hr 5 min 9 sec) 
Heartbeat CPU 0 instructions: 60000000 cycles: 42379238 heartbeat IPC: 1.56296 cumulative IPC: 1.37187 (Simulation time: 0 hr 5 min 31 sec) 
Heartbeat CPU 0 instructions: 70000001 cycles: 47852807 heartbeat IPC: 1.82696 cumulative IPC: 1.42679 (Simulation time: 0 hr 6 min 16 sec) 
Heartbeat CPU 0 instructions: 80000000 cycles: 53290759 heartbeat IPC: 1.83893 cumulative IPC: 1.47091 (Simulation time: 0 hr 6 min 56 sec) 
Heartbeat CPU 0 instructions: 90000000 cycles: 58756034 heartbeat IPC: 1.82973 cumulative IPC: 1.50577 (Simulation time: 0 hr 7 min 39 sec) 
Heartbeat CPU 0 instructions: 100000003 cycles: 64227456 heartbeat IPC: 1.82768 cumulative IPC: 1.5343 (Simulation time: 0 hr 8 min 20 sec) 
Heartbeat CPU 0 instructions: 110000000 cycles: 69699733 heartbeat IPC: 1.82739 cumulative IPC: 1.55817 (Simulation time: 0 hr 9 min 2 sec) 
Heartbeat CPU 0 instructions: 120000000 cycles: 75656393 heartbeat IPC: 1.67879 cumulative IPC: 1.56799 (Simulation time: 0 hr 9 min 45 sec) 
Heartbeat CPU 1 instructions: 30000002 cycles: 78714905 heartbeat IPC: 0.241345 cumulative IPC: 0.328009 (Simulation time: 0 hr 10 min 10 sec) 
Heartbeat CPU 0 instructions: 130000001 cycles: 81114924 heartbeat IPC: 1.83199 cumulative IPC: 1.58632 (Simulation time: 0 hr 10 min 32 sec) 
Heartbeat CPU 0 instructions: 140000002 cycles: 86677655 heartbeat IPC: 1.79768 cumulative IPC: 1.60029 (Simulation time: 0 hr 11 min 22 sec) 
Heartbeat CPU 0 instructions: 150000000 cycles: 92252415 heartbeat IPC: 1.7938 cumulative IPC: 1.61231 (Simulation time: 0 hr 12 min 12 sec) 
Heartbeat CPU 1 instructions: 40000000 cycles: 93890993 heartbeat IPC: 0.658931 cumulative IPC: 0.38296 (Simulation time: 0 hr 12 min 27 sec) 
Heartbeat CPU 0 instructions: 160000002 cycles: 97826600 heartbeat IPC: 1.79398 cumulative IPC: 1.62293 (Simulation time: 0 hr 13 min 1 sec) 
Heartbeat CPU 0 instructions: 170000003 cycles: 103335473 heartbeat IPC: 1.81525 cumulative IPC: 1.63344 (Simulation time: 0 hr 13 min 52 sec) 
Heartbeat CPU 0 instructions: 180000001 cycles: 108851066 heartbeat IPC: 1.81304 cumulative IPC: 1.64275 (Simulation time: 0 hr 14 min 42 sec) 
Heartbeat CPU 1 instructions: 50000002 cycles: 108871145 heartbeat IPC: 0.66755 cumulative IPC: 0.423037 (Simulation time: 0 hr 14 min 42 sec) 
Heartbeat CPU 0 instructions: 190000001 cycles: 114368812 heartbeat IPC: 1.81233 cumulative IPC: 1.65112 (Simulation time: 0 hr 15 min 31 sec) 
Finished CPU 1 instructions: 50000003 cycles: 113861275 cumulative IPC: 0.439131 (Simulation time: 0 hr 15 min 50 sec) 

ChampSim completed all CPUs

Total Simulation Statistics (not including warmup)

CPU 0 cumulative IPC: 1.65426 instructions: 188355817 cycles: 113861275
L1D TOTAL     ACCESS:   65523076  HIT:   64640414  MISS:     882662
L1D LOAD      ACCESS:   54984765  HIT:   54683102  MISS:     301663
L1D RFO       ACCESS:   10538311  HIT:    9957312  MISS:     580999
L1D PREFETCH  ACCESS:          0  HIT:          0  MISS:          0
L1D WRITEBACK ACCESS:          0  HIT:          0  MISS:          0
L1I TOTAL     ACCESS:   30836390  HIT:   30835887  MISS:        503
L1I LOAD      ACCESS:   30836390  HIT:   30835887  MISS:        503
L1I RFO       ACCESS:          0  HIT:          0  MISS:          0
L1I PREFETCH  ACCESS:          0  HIT:          0  MISS:          0
L1I WRITEBACK ACCESS:          0  HIT:          0  MISS:          0
L2C TOTAL     ACCESS:    1465809  HIT:     873439  MISS:     592370
L2C LOAD      ACCESS:     302165  HIT:     273611  MISS:      28554
L2C RFO       ACCESS:     580999  HIT:      17286  MISS:     563713
L2C PREFETCH  ACCESS:          0  HIT:          0  MISS:          0
L2C WRITEBACK ACCESS:     582645  HIT:     582542  MISS:        103
LLC TOTAL     ACCESS:    1158400  HIT:    1004581  MISS:     153819
LLC LOAD      ACCESS:      28554  HIT:      23819  MISS:       4735
LLC RFO       ACCESS:     563713  HIT:     420482  MISS:     143231
LLC PREFETCH  ACCESS:          0  HIT:          0  MISS:          0
LLC WRITEBACK ACCESS:     566133  HIT:     560280  MISS:       5853

CPU 1 cumulative IPC: 0.439131 instructions: 50000003 cycles: 113861275
L1D TOTAL     ACCESS:   12546586  HIT:   10357323  MISS:    2189263
L1D LOAD      ACCESS:    8609098  HIT:    6881088  MISS:    1728010
L1D RFO       ACCESS:    3937488  HIT:    3476235  MISS:     461253
L1D PREFETCH  ACCESS:          0  HIT:          0  MISS:          0
L1D WRITEBACK ACCESS:          0  HIT:          0  MISS:          0
L1I TOTAL     ACCESS:    8915962  HIT:    8915582  MISS:        380
L1I LOAD      ACCESS:    8915962  HIT:    8915582  MISS:        380
L1I RFO       ACCESS:          0  HIT:          0  MISS:          0
L1I PREFETCH  ACCESS:          0  HIT:          0  MISS:          0
L1I WRITEBACK ACCESS:          0  HIT:          0  MISS:          0
L2C TOTAL     ACCESS:    2777996  HIT:    1168184  MISS:    1609812
L2C LOAD      ACCESS:    1728310  HIT:     437912  MISS:    1290398
L2C RFO       ACCESS:     461169  HIT:     142807  MISS:     318362
L2C PREFETCH  ACCESS:          0  HIT:          0  MISS:          0
L2C WRITEBACK ACCESS:     588517  HIT:     587465  MISS:       1052
LLC TOTAL     ACCESS:    2025482  HIT:     748011  MISS:    1277471
LLC LOAD      ACCESS:    1290396  HIT:     316214  MISS:     974182
LLC RFO       ACCESS:     318361  HIT:      22477  MISS:     295884
LLC PREFETCH  ACCESS:          0  HIT:          0  MISS:          0
LLC WRITEBACK ACCESS:     416725  HIT:     409320  MISS:       7405

Region of Interest Statistics

CPU 0 cumulative IPC: 1.35783 instructions: 50000003 cycles: 36823473
L1D TOTAL     ACCESS:   16940799  HIT:   16704699  MISS:     236100
L1D LOAD      ACCESS:   14472588  HIT:   14390896  MISS:      81692
L1D RFO       ACCESS:    2468211  HIT:    2313803  MISS:     154408
L1D PREFETCH  ACCESS:          0  HIT:          0  MISS:          0
L1D WRITEBACK ACCESS:          0  HIT:          0  MISS:          0
L1D PREFETCH  REQUESTED:          0  ISSUED:          0  USEFUL:          0  USELESS:          0
L1D AVERAGE MISS LATENCY: 302.927 cycles
L1I TOTAL     ACCESS:    8294359  HIT:    8294232  MISS:        127
L1I LOAD      ACCESS:    8294359  HIT:    8294232  MISS:        127
L1I RFO       ACCESS:          0  HIT:          0  MISS:          0
L1I PREFETCH  ACCESS:          0  HIT:          0  MISS:          0
L1I WRITEBACK ACCESS:          0  HIT:          0  MISS:          0
L1I PREFETCH  REQUESTED:          0  ISSUED:          0  USEFUL:          0  USELESS:          0
L1I AVERAGE MISS LATENCY: 389.874 cycles
L2C TOTAL     ACCESS:     391053  HIT:     243370  MISS:     147683
L2C LOAD      ACCESS:      81819  HIT:      75568  MISS:       6251
L2C RFO       ACCESS:     154408  HIT:      12989  MISS:     141419
L2C PREFETCH  ACCESS:          0  HIT:          0  MISS:          0
L2C WRITEBACK ACCESS:     154826  HIT:     154813  MISS:         13
L2C PREFETCH  REQUESTED:          0  ISSUED:          0  USEFUL:          0  USELESS:          0
L2C AVERAGE MISS LATENCY: 394.761 cycles
LLC TOTAL     ACCESS:     288288  HIT:     151666  MISS:     136622
LLC LOAD      ACCESS:       6251  HIT:       2514  MISS:       3737
LLC RFO       ACCESS:     141419  HIT:      14387  MISS:     127032
LLC PREFETCH  ACCESS:          0  HIT:          0  MISS:          0
LLC WRITEBACK ACCESS:     140618  HIT:     134765  MISS:       5853
LLC PREFETCH  REQUESTED:          0  ISSUED:          0  USEFUL:          0  USELESS:          0
LLC AVERAGE MISS LATENCY: 2651.67 cycles
Major fault: 0 Minor fault: 1183

CPU 1 cumulative IPC: 0.439131 instructions: 50000003 cycles: 113861275
L1D TOTAL     ACCESS:   12546586  HIT:   10357323  MISS:    2189263
L1D LOAD      ACCESS:    8609098  HIT:    6881088  MISS:    1728010
L1D RFO       ACCESS:    3937488  HIT:    3476235  MISS:     461253
L1D PREFETCH  ACCESS:          0  HIT:          0  MISS:          0
L1D WRITEBACK ACCESS:          0  HIT:          0  MISS:          0
L1D PREFETCH  REQUESTED:          0  ISSUED:          0  USEFUL:          0  USELESS:          0
L1D AVERAGE MISS LATENCY: 185.019 cycles
L1I TOTAL     ACCESS:    8915962  HIT:    8915582  MISS:        380
L1I LOAD      ACCESS:    8915962  HIT:    8915582  MISS:        380
L1I RFO       ACCESS:          0  HIT:          0  MISS:          0
L1I PREFETCH  ACCESS:          0  HIT:          0  MISS:          0
L1I WRITEBACK ACCESS:          0  HIT:          0  MISS:          0
L1I PREFETCH  REQUESTED:          0  ISSUED:          0  USEFUL:          0  USELESS:          0
L1I AVERAGE MISS LATENCY: 232.189 cycles
L2C TOTAL     ACCESS:    2777996  HIT:    1168184  MISS:    1609812
L2C LOAD      ACCESS:    1728310  HIT:     437912  MISS:    1290398
L2C RFO       ACCESS:     461169  HIT:     142807  MISS:     318362
L2C PREFETCH  ACCESS:          0  HIT:          0  MISS:          0
L2C WRITEBACK ACCESS:     588517  HIT:     587465  MISS:       1052
L2C PREFETCH  REQUESTED:          0  ISSUED:          0  USEFUL:          0  USELESS:          0
L2C AVERAGE MISS LATENCY: 230.275 cycles
LLC TOTAL     ACCESS:    2025482  HIT:     748011  MISS:    1277471
LLC LOAD      ACCESS:    1290396  HIT:     316214  MISS:     974182
LLC RFO       ACCESS:     318361  HIT:      22477  MISS:     295884
LLC PREFETCH  ACCESS:          0  HIT:          0  MISS:          0
LLC WRITEBACK ACCESS:     416725  HIT:     409320  MISS:       7405
LLC PREFETCH  REQUESTED:          0  ISSUED:          0  USEFUL:          0  USELESS:          0
LLC AVERAGE MISS LATENCY: 283.589 cycles
Major fault: 0 Minor fault: 12150

DRAM Statistics
 CHANNEL 0
 RQ ROW_BUFFER_HIT:     339826  ROW_BUFFER_MISS:    1078177
 DBUS_CONGESTED:     690962
 WQ ROW_BUFFER_HIT:     216846  ROW_BUFFER_MISS:     309850  FULL:          0

 AVG_CONGESTED_CYCLE: 6

CPU 0 Branch Prediction Accuracy: 99.304% MPKI: 0.266381 Average ROB Occupancy at Mispredict: 86.8922

Branch types
NOT_BRANCH: 181135799 96.1668%
BRANCH_DIRECT_JUMP: 54310 0.0288337%
BRANCH_INDIRECT: 13995 0.00743009%
BRANCH_CONDITIONAL: 7124215 3.78232%
BRANCH_DIRECT_CALL: 13741 0.00729524%
BRANCH_INDIRECT_CALL: 6 3.18546e-06%
BRANCH_RETURN: 13747 0.00729842%
BRANCH_OTHER: 0 0%


CPU 1 Branch Prediction Accuracy: 98.3832% MPKI: 0.81346 Average ROB Occupancy at Mispredict: 297.286

Branch types
NOT_BRANCH: 47484408 94.9688%
BRANCH_DIRECT_JUMP: 37593 0.075186%
BRANCH_INDIRECT: 0 0%
BRANCH_CONDITIONAL: 2475244 4.95049%
BRANCH_DIRECT_CALL: 1372 0.002744%
BRANCH_INDIRECT_CALL: 0 0%
BRANCH_RETURN: 1372 0.002744%
BRANCH_OTHER: 0 0%

