
*** ChampSim Multicore Out-of-Order Simulator ***

Warmup Instructions: 5000000
Simulation Instructions: 50000000
Number of CPUs: 2
LLC sets: 4096
LLC ways: 16
Off-chip DRAM Size: 4096 MB Channels: 1 Width: 64-bit Data Rate: 3200 MT/s

CPU 0 runs /home/vivek2707/UtilityBasedCachePartioning/dpc3_traces/omnetpp_4B.trace.xz
CPU 1 runs /home/vivek2707/UtilityBasedCachePartioning/dpc3_traces/bwaves_98B.trace.xz
CPU 0 Bimodal branch predictor
CPU 1 Bimodal branch predictor
Caught signal: 2
